
     RDKit          3D

 29 30  0  0  0  0  0  0  0  0999 V2000
    2.7442   -0.6201   -0.0414 O   0  0  0  0  0  0  0  0  0  0  0  0
    1.4714   -0.4539   -0.6421 C   0  0  1  0  0  0  0  0  0  0  0  0
    0.6783   -1.7736   -0.6114 C   0  0  0  0  0  0  0  0  0  0  0  0
   -0.6216   -1.3731    0.1274 C   0  0  1  0  0  0  0  0  0  0  0  0
   -0.2435   -1.2160    1.6173 C   0  0  0  0  0  0  0  0  0  0  0  0
    0.5508    0.1011    1.6324 C   0  0  0  0  0  0  0  0  0  0  0  0
    0.5419    0.5255    0.1365 C   0  0  1  0  0  0  0  0  0  0  0  0
    0.9086    1.9851   -0.0578 C   0  0  0  0  0  0  0  0  0  0  0  0
   -0.8768    0.0857   -0.3373 C   0  0  0  0  0  0  0  0  0  0  0  0
   -2.0581    0.7745    0.3758 C   0  0  0  0  0  0  0  0  0  0  0  0
   -1.1497    0.2266   -1.8482 C   0  0  0  0  0  0  0  0  0  0  0  0
    3.1833    0.2471   -0.0415 H   0  0  0  0  0  0  0  0  0  0  0  0
    1.6383   -0.1308   -1.6753 H   0  0  0  0  0  0  0  0  0  0  0  0
    1.2149   -2.5858   -0.1096 H   0  0  0  0  0  0  0  0  0  0  0  0
    0.4510   -2.1081   -1.6295 H   0  0  0  0  0  0  0  0  0  0  0  0
   -1.4439   -2.0733   -0.0372 H   0  0  0  0  0  0  0  0  0  0  0  0
   -1.1330   -1.1420    2.2516 H   0  0  0  0  0  0  0  0  0  0  0  0
    0.3544   -2.0549    1.9889 H   0  0  0  0  0  0  0  0  0  0  0  0
    1.5588   -0.0406    2.0351 H   0  0  0  0  0  0  0  0  0  0  0  0
    0.0584    0.8417    2.2724 H   0  0  0  0  0  0  0  0  0  0  0  0
    0.8959    2.2605   -1.1173 H   0  0  0  0  0  0  0  0  0  0  0  0
    0.2100    2.6447    0.4671 H   0  0  0  0  0  0  0  0  0  0  0  0
    1.9120    2.1932    0.3284 H   0  0  0  0  0  0  0  0  0  0  0  0
   -2.9997    0.2745    0.1207 H   0  0  0  0  0  0  0  0  0  0  0  0
   -2.1420    1.8211    0.0615 H   0  0  0  0  0  0  0  0  0  0  0  0
   -1.9916    0.7801    1.4656 H   0  0  0  0  0  0  0  0  0  0  0  0
   -0.3878   -0.2159   -2.4929 H   0  0  0  0  0  0  0  0  0  0  0  0
   -2.0987   -0.2563   -2.1094 H   0  0  0  0  0  0  0  0  0  0  0  0
   -1.2259    1.2829   -2.1300 H   0  0  0  0  0  0  0  0  0  0  0  0
  1  2  1  0
  2  3  1  0
  3  4  1  0
  4  5  1  0
  5  6  1  0
  6  7  1  0
  7  8  1  1
  7  9  1  0
  9 10  1  0
  9 11  1  0
  7  2  1  0
  9  4  1  0
  1 12  1  0
  2 13  1  6
  3 14  1  0
  3 15  1  0
  4 16  1  1
  5 17  1  0
  5 18  1  0
  6 19  1  0
  6 20  1  0
  8 21  1  0
  8 22  1  0
  8 23  1  0
 10 24  1  0
 10 25  1  0
 10 26  1  0
 11 27  1  0
 11 28  1  0
 11 29  1  0
M  END
