
     RDKit          3D

 29 30  0  0  0  0  0  0  0  0999 V2000
    0.3685   -1.9696   -0.9705 C   0  0  0  0  0  0  0  0  0  0  0  0
   -0.1089   -0.8203   -0.1023 C   0  0  1  0  0  0  0  0  0  0  0  0
   -0.0172   -1.1319    1.4193 C   0  0  0  0  0  0  0  0  0  0  0  0
   -0.1085    0.2634    2.0618 C   0  0  0  0  0  0  0  0  0  0  0  0
   -0.2203    1.2001    0.8379 C   0  0  1  0  0  0  0  0  0  0  0  0
    0.6850    0.5198   -0.2204 C   0  0  0  0  0  0  0  0  0  0  0  0
    0.6631    1.2077   -1.5992 C   0  0  0  0  0  0  0  0  0  0  0  0
    2.1731    0.4379    0.1826 C   0  0  0  0  0  0  0  0  0  0  0  0
   -1.6464    1.0160    0.2649 C   0  0  0  0  0  0  0  0  0  0  0  0
   -1.5902   -0.3985   -0.3449 C   0  0  1  0  0  0  0  0  0  0  0  0
   -1.9318   -0.3811   -1.7207 O   0  0  0  0  0  0  0  0  0  0  0  0
    1.3965   -2.2544   -0.7233 H   0  0  0  0  0  0  0  0  0  0  0  0
    0.3436   -1.7120   -2.0339 H   0  0  0  0  0  0  0  0  0  0  0  0
   -0.2631   -2.8527   -0.8256 H   0  0  0  0  0  0  0  0  0  0  0  0
   -0.8274   -1.7851    1.7621 H   0  0  0  0  0  0  0  0  0  0  0  0
    0.9241   -1.6241    1.6870 H   0  0  0  0  0  0  0  0  0  0  0  0
   -0.9697    0.3457    2.7331 H   0  0  0  0  0  0  0  0  0  0  0  0
    0.7883    0.4796    2.6518 H   0  0  0  0  0  0  0  0  0  0  0  0
    0.0197    2.2408    1.0680 H   0  0  0  0  0  0  0  0  0  0  0  0
    1.1956    0.6035   -2.3421 H   0  0  0  0  0  0  0  0  0  0  0  0
   -0.3321    1.4025   -2.0000 H   0  0  0  0  0  0  0  0  0  0  0  0
    1.1638    2.1818   -1.5450 H   0  0  0  0  0  0  0  0  0  0  0  0
    2.7481   -0.1078   -0.5744 H   0  0  0  0  0  0  0  0  0  0  0  0
    2.3613   -0.0596    1.1360 H   0  0  0  0  0  0  0  0  0  0  0  0
    2.6013    1.4438    0.2640 H   0  0  0  0  0  0  0  0  0  0  0  0
   -2.4056    1.0796    1.0522 H   0  0  0  0  0  0  0  0  0  0  0  0
   -1.8840    1.7809   -0.4815 H   0  0  0  0  0  0  0  0  0  0  0  0
   -2.2914   -1.0761    0.1551 H   0  0  0  0  0  0  0  0  0  0  0  0
   -2.8356   -0.0298   -1.7921 H   0  0  0  0  0  0  0  0  0  0  0  0
  2  1  1  6
  2  3  1  0
  3  4  1  0
  4  5  1  0
  5  6  1  0
  6  7  1  0
  6  8  1  0
  5  9  1  0
  9 10  1  0
 10 11  1  0
  6  2  1  0
 10  2  1  0
  1 12  1  0
  1 13  1  0
  1 14  1  0
  3 15  1  0
  3 16  1  0
  4 17  1  0
  4 18  1  0
  5 19  1  1
  7 20  1  0
  7 21  1  0
  7 22  1  0
  8 23  1  0
  8 24  1  0
  8 25  1  0
  9 26  1  0
  9 27  1  0
 10 28  1  1
 11 29  1  0
M  END
